/*--------------------------------*- C++ -*----------------------------------*\
| =========                 |                                                 |
| \\      /  F ield         | OpenFOAM: The Open Source CFD Toolbox           |
|  \\    /   O peration     | Version:  %1|
|   \\  /    A nd           | Website:  %2|
|    \\/     M anipulation  |                                                 |
\*---------------------------------------------------------------------------*/
FoamFile
{
    version     2.0;
    format      ascii;
    class       dictionary;
    object      blockMeshDict;
}
// * * * * * * * * * * * * * * * * * * * * * * * * * * * * * * * * * * * * * //

convertToMeters 1;

// Define the 8 corners of the bounding box
vertices
(
    (0 0 0) // 0
    (1 0 0) // 1
    (1 1 0) // 2
    (0 1 0) // 3
    (0 0 1) // 4
    (1 0 1) // 5
    (1 1 1) // 6
    (0 1 1) // 7
);

// hex block defined by the 8 vertices, cell counts (x y z), and grading
blocks
(
    hex (0 1 2 3 4 5 6 7) (20 20 20) simpleGrading (1 1 1)
);

edges
(
);

// Define the 6 outer faces of the box
boundary
(
    xMin
    {
        type patch;
        faces
        (
            (0 4 7 3)
        );
    }
    xMax
    {
        type patch;
        faces
        (
            (1 2 6 5)
        );
    }
    yMin
    {
        type wall;
        faces
        (
            (0 1 5 4)
        );
    }
    yMax
    {
        type wall;
        faces
        (
            (3 7 6 2)
        );
    }
    zMin
    {
        type empty;
        faces
        (
            (0 3 2 1)
        );
    }
    zMax
    {
        type empty; 
        faces
        (
            (4 5 6 7)
        );
    }
);

mergePatchPairs
(
);

// ************************************************************************* //