/*--------------------------------*- C++ -*----------------------------------*\
| =========                 |                                                 |
| \\      /  F ield         | OpenFOAM: The Open Source CFD Toolbox           |
|  \\    /   O peration     | Version:  %1|
|   \\  /    A nd           | Website:  %2|
|    \\/     M anipulation  |                                                 |
\*---------------------------------------------------------------------------*/
FoamFile
{
    version     2.0;
    format      ascii;
    class       dictionary;
    object      controlDict;
}
// * * * * * * * * * * * * * * * * * * * * * * * * * * * * * * * * * * * * * //

application     %3;

startFrom       startTime;
startTime       0;
stopAt          endTime;
endTime         %4;

deltaT          %5;

writeControl    %6;
writeInterval   %7;

// ************************************************************************* //